
#======================================================================
# CRYSTAL DATA
#----------------------------------------------------------------------
data_VESTA_phase_1

_chemical_name_common                  'AutoCreatByScript: O Ti Ir            '
_cell_length_a                         12.016321
_cell_length_b                         6.527444
_cell_length_c                         32.343140
_cell_angle_alpha                      90.000000
_cell_angle_beta                       90.000000
_cell_angle_gamma                      90.000000
_cell_volume                           2536.862046
_space_group_name_H-M_alt              'P 1'
_space_group_IT_number                 1

loop_
_space_group_symop_operation_xyz
   'x, y, z'

loop_
   _atom_site_label
   _atom_site_occupancy
   _atom_site_fract_x
   _atom_site_fract_y
   _atom_site_fract_z
   _atom_site_adp_type
   _atom_site_U_iso_or_equiv
   _atom_site_type_symbol
   O1         1.0     0.193338     0.538038    -0.002850    Uiso  ? O
   O2         1.0     0.443320     0.538035    -0.002844    Uiso  ? O
   O3         1.0     0.693314     0.538020    -0.002845    Uiso  ? O
   O4         1.0     0.943317     0.537992    -0.002851    Uiso  ? O
   O5         1.0     0.068365     0.225056     0.033577    Uiso  ? O
   O6         1.0     0.318367     0.225042     0.033578    Uiso  ? O
   O7         1.0     0.568375     0.225069     0.033596    Uiso  ? O
   O8         1.0     0.818373     0.225058     0.033582    Uiso  ? O
   O9         1.0     0.068313     0.850946     0.033566    Uiso  ? O
   O10        1.0     0.318319     0.850932     0.033595    Uiso  ? O
   O11        1.0     0.568317     0.850947     0.033576    Uiso  ? O
   O12        1.0     0.818321     0.850940     0.033571    Uiso  ? O
   O13        1.0     0.193311     0.537694     0.076411    Uiso  ? O
   O14        1.0     0.443329     0.537643     0.076423    Uiso  ? O
   O15        1.0     0.693326     0.537718     0.076419    Uiso  ? O
   O16        1.0     0.943353     0.537714     0.076405    Uiso  ? O
   O17        1.0     0.193366     0.037736     0.100378    Uiso  ? O
   O18        1.0     0.443429     0.037742     0.100376    Uiso  ? O
   O19        1.0     0.693435     0.037743     0.100378    Uiso  ? O
   O20        1.0     0.943438     0.037714     0.100374    Uiso  ? O
   O21        1.0     0.068513     0.338741     0.138427    Uiso  ? O
   O22        1.0     0.318509     0.338744     0.138421    Uiso  ? O
   O23        1.0     0.568525     0.338732     0.138446    Uiso  ? O
   O24        1.0     0.818541     0.338743     0.138412    Uiso  ? O
   O25        1.0     0.068471     0.736638     0.138492    Uiso  ? O
   O26        1.0     0.318465     0.736632     0.138481    Uiso  ? O
   O27        1.0     0.568496     0.736640     0.138505    Uiso  ? O
   O28        1.0     0.818502     0.736652     0.138478    Uiso  ? O
   O29        1.0     0.193566     0.037739     0.179660    Uiso  ? O
   O30        1.0     0.443562     0.037746     0.179637    Uiso  ? O
   O31        1.0     0.693626     0.037725     0.179644    Uiso  ? O
   O32        1.0     0.943597     0.037720     0.179676    Uiso  ? O
   O33        1.0     0.193932     0.536493     0.199226    Uiso  ? O
   O34        1.0     0.443963     0.536434     0.199205    Uiso  ? O
   O35        1.0     0.694086     0.536470     0.199212    Uiso  ? O
   O36        1.0     0.944033     0.536459     0.199236    Uiso  ? O
   O37        1.0     0.069099     0.230889     0.240642    Uiso  ? O
   O38        1.0     0.319025     0.230966     0.240611    Uiso  ? O
   O39        1.0     0.569133     0.230935     0.240583    Uiso  ? O
   O40        1.0     0.819148     0.230896     0.240642    Uiso  ? O
   O41        1.0     0.069094     0.841966     0.240346    Uiso  ? O
   O42        1.0     0.319036     0.842035     0.240304    Uiso  ? O
   O43        1.0     0.569121     0.842021     0.240284    Uiso  ? O
   O44        1.0     0.819147     0.842006     0.240329    Uiso  ? O
   O45        1.0     0.194165     0.536462     0.278316    Uiso  ? O
   O46        1.0     0.444219     0.536465     0.278231    Uiso  ? O
   O47        1.0     0.694270     0.536400     0.278263    Uiso  ? O
   O48        1.0     0.944270     0.536357     0.278343    Uiso  ? O
   O49        1.0     0.194563     0.033917     0.302819    Uiso  ? O
   O50        1.0     0.444670     0.033802     0.302726    Uiso  ? O
   O51        1.0     0.694922     0.033772     0.302756    Uiso  ? O
   O52        1.0     0.944794     0.033838     0.302872    Uiso  ? O
   O53        1.0     0.069911     0.337759     0.340586    Uiso  ? O
   O54        1.0     0.319874     0.337849     0.340409    Uiso  ? O
   O55        1.0     0.569951     0.337807     0.340374    Uiso  ? O
   O56        1.0     0.819953     0.337743     0.340491    Uiso  ? O
   O57        1.0     0.069913     0.729824     0.341002    Uiso  ? O
   O58        1.0     0.319820     0.729811     0.340833    Uiso  ? O
   O59        1.0     0.569948     0.729757     0.340774    Uiso  ? O
   O60        1.0     0.819930     0.729691     0.340920    Uiso  ? O
   O61        1.0     0.195041     0.033370     0.381907    Uiso  ? O
   O62        1.0     0.445020     0.033283     0.381452    Uiso  ? O
   O63        1.0     0.694948     0.033076     0.381784    Uiso  ? O
   O64        1.0     0.944929     0.033088     0.381736    Uiso  ? O
   O65        1.0     0.195681     0.531810     0.401029    Uiso  ? O
   O66        1.0     0.445427     0.531913     0.400869    Uiso  ? O
   O67        1.0     0.695783     0.531660     0.400956    Uiso  ? O
   O68        1.0     0.945486     0.531873     0.401034    Uiso  ? O
   O69        1.0     0.070926     0.228636     0.442698    Uiso  ? O
   O70        1.0     0.320735     0.228604     0.442375    Uiso  ? O
   O71        1.0     0.570662     0.229007     0.442372    Uiso  ? O
   O72        1.0     0.820679     0.228712     0.442614    Uiso  ? O
   O73        1.0     0.070921     0.831307     0.442890    Uiso  ? O
   O74        1.0     0.320589     0.831205     0.442522    Uiso  ? O
   O75        1.0     0.570825     0.831271     0.442477    Uiso  ? O
   O76        1.0     0.820520     0.831297     0.442742    Uiso  ? O
   O77        1.0     0.196531     0.523547     0.480850    Uiso  ? O
   O78        1.0     0.445215     0.526010     0.480654    Uiso  ? O
   O79        1.0     0.696226     0.524349     0.480772    Uiso  ? O
   O80        1.0     0.945154     0.524178     0.480729    Uiso  ? O
   O81        1.0     0.196494     0.031115     0.505166    Uiso  ? O
   O82        1.0     0.447158     0.028109     0.503722    Uiso  ? O
   O83        1.0     0.695396     0.029883     0.505104    Uiso  ? O
   O84        1.0     0.947277     0.028621     0.504076    Uiso  ? O
   O85        1.0     0.071644     0.334696     0.547384    Uiso  ? O
   O86        1.0     0.322535     0.335346     0.543564    Uiso  ? O
   O87        1.0     0.571688     0.334583     0.547426    Uiso  ? O
   O88        1.0     0.821957     0.335217     0.543356    Uiso  ? O
   O89        1.0     0.071717     0.726569     0.547206    Uiso  ? O
   O90        1.0     0.322470     0.725469     0.543463    Uiso  ? O
   O91        1.0     0.571654     0.726828     0.547299    Uiso  ? O
   O92        1.0     0.822067     0.726090     0.543200    Uiso  ? O
   O93        1.0     0.198014     0.027620     0.582176    Uiso  ? O
   O94        1.0     0.446541     0.029290     0.585230    Uiso  ? O
   O95        1.0     0.697109     0.028801     0.582402    Uiso  ? O
   O96        1.0     0.946000     0.029399     0.584563    Uiso  ? O
   Ti1        1.0     0.193349     0.037980     0.043173    Uiso  ? Ti
   Ti2        1.0     0.443360     0.037976     0.043171    Uiso  ? Ti
   Ti3        1.0     0.693367     0.037971     0.043174    Uiso  ? Ti
   Ti4        1.0     0.943363     0.037981     0.043168    Uiso  ? Ti
   Ti5        1.0     0.068312     0.537938     0.031211    Uiso  ? Ti
   Ti6        1.0     0.318308     0.537931     0.031220    Uiso  ? Ti
   Ti7        1.0     0.568308     0.537930     0.031218    Uiso  ? Ti
   Ti8        1.0     0.818313     0.537937     0.031216    Uiso  ? Ti
   Ti9        1.0     0.068476     0.037836     0.142355    Uiso  ? Ti
   Ti10       1.0     0.318480     0.037852     0.142321    Uiso  ? Ti
   Ti11       1.0     0.568531     0.037856     0.142319    Uiso  ? Ti
   Ti12       1.0     0.818593     0.037843     0.142339    Uiso  ? Ti
   Ti13       1.0     0.193461     0.537771     0.134902    Uiso  ? Ti
   Ti14       1.0     0.443476     0.537781     0.134904    Uiso  ? Ti
   Ti15       1.0     0.693503     0.537782     0.134901    Uiso  ? Ti
   Ti16       1.0     0.943492     0.537771     0.134901    Uiso  ? Ti
   Ti17       1.0     0.193977     0.036667     0.242557    Uiso  ? Ti
   Ti18       1.0     0.444009     0.036713     0.242526    Uiso  ? Ti
   Ti19       1.0     0.694073     0.036639     0.242508    Uiso  ? Ti
   Ti20       1.0     0.944044     0.036620     0.242669    Uiso  ? Ti
   Ti21       1.0     0.068957     0.536834     0.237850    Uiso  ? Ti
   Ti22       1.0     0.318908     0.536904     0.237791    Uiso  ? Ti
   Ti23       1.0     0.569016     0.536892     0.237762    Uiso  ? Ti
   Ti24       1.0     0.819050     0.536830     0.237818    Uiso  ? Ti
   Ti25       1.0     0.069976     0.033927     0.342708    Uiso  ? Ti
   Ti26       1.0     0.319688     0.033992     0.342508    Uiso  ? Ti
   Ti27       1.0     0.570128     0.033914     0.342443    Uiso  ? Ti
   Ti28       1.0     0.819777     0.033872     0.342663    Uiso  ? Ti
   Ti29       1.0     0.194871     0.534039     0.338971    Uiso  ? Ti
   Ti30       1.0     0.444933     0.534040     0.338851    Uiso  ? Ti
   Ti31       1.0     0.694928     0.534005     0.338912    Uiso  ? Ti
   Ti32       1.0     0.944918     0.533947     0.339007    Uiso  ? Ti
   Ir1        1.0     0.195857     0.029991     0.444147    Uiso  ? Ir
   Ir2        1.0     0.445706     0.030166     0.443286    Uiso  ? Ir
   Ir3        1.0     0.695602     0.030334     0.444019    Uiso  ? Ir
   Ir4        1.0     0.945792     0.030197     0.443662    Uiso  ? Ir
   Ir5        1.0     0.070715     0.530421     0.441306    Uiso  ? Ir
   Ir6        1.0     0.320728     0.530218     0.441229    Uiso  ? Ir
   Ir7        1.0     0.570603     0.530273     0.441124    Uiso  ? Ir
   Ir8        1.0     0.820643     0.530208     0.441285    Uiso  ? Ir
   Ir9        1.0     0.070372     0.030971     0.545404    Uiso  ? Ir
   Ir10       1.0     0.324207     0.030707     0.545204    Uiso  ? Ir
   Ir11       1.0     0.569802     0.031126     0.545504    Uiso  ? Ir
   Ir12       1.0     0.822865     0.031061     0.544996    Uiso  ? Ir
   Ir13       1.0     0.196072     0.530891     0.540809    Uiso  ? Ir
   Ir14       1.0     0.448359     0.530834     0.540531    Uiso  ? Ir
   Ir15       1.0     0.695879     0.531130     0.540687    Uiso  ? Ir
   Ir16       1.0     0.948106     0.531017     0.540601    Uiso  ? Ir
